*Heading
** Job name: Job-1 Model name: Model-1
** Generated by: Abaqus/CAE 2020
*Preprint, echo=NO, model=NO, history=NO, contact=NO
**
** PARTS
**
*Part, name=Part-1
*Node
      1,   9.80000019,           0.
      2,   9.60000038,           0.
      3,   9.39999962,           0.
      4,   9.19999981,           0.
      5,           9.,           0.
      6,   8.80000019,           0.
      7,          8.5,           0.
      8,   8.30000019,           0.
      9,   8.10000038,           0.
     10,    7.9000001,           0.
     11,   7.69999981,           0.
     12,          7.5,           0.
     13,   7.30000019,           0.
     14,    7.0999999,           0.
     15,    6.9000001,           0.
     16,   6.69999981,           0.
     17,          6.5,           0.
     18,   6.30000019,           0.
     19,           6.,           0.
     20,   5.80000019,           0.
** ... 9063 like lines cut
*Element, type=CPS4R
  1, 4372, 4291, 4165
  2, 8335, 8408, 3911
  3, 8723, 4562, 4447
  4, 7676, 5316, 1727
  5, 5325, 8314, 5097
  6, 6774, 6718, 6548
  7, 6841, 6741, 6604
  8, 6466, 6247, 6317
  9, 6501, 6477, 5892
 10, 7661, 5525, 1335
 11, 5687, 5578, 1424
 12, 8507, 5753, 5841
 13, 8223, 4657, 1332
 14, 7344, 7294,  774
 15, 5646, 5658, 5565
 16, 5317, 5208, 4944
 17, 9008,  675, 6761
 18, 9021, 7123, 7038
 19, 6313, 8817,  856
 20, 8370, 5483,  993
** ... 228 like lines cut
*Element, type=CPS4R
 249, 2247, 7704, 2164,  239
 250, 1988, 7704, 2247,  170
 251, 2250, 1989,  170, 2247
 252, 2234,  172, 1990, 2244
 253, 2235,  173, 1991, 2245
 254,  174, 1992, 2246, 2236
 255, 2251,  175, 1993, 2325
 256, 2327, 1995, 1994, 2326
 257, 2328, 2253,  177, 1996
 258, 1997, 2329, 2254,  178
 259, 1998, 2330, 2255,  179
 260, 1999, 2331, 2256,  180
 261, 2000, 2332, 2257,  181
 262, 2001, 2333, 2258,  182
 263, 2002, 2334, 2259,  183
 264, 2260,  184, 2003, 2335
 265, 2261,  185, 2004, 2336
 266, 2262,  186, 2005, 2337
 267, 2263,  187, 2006, 2338
 268,  188, 2264, 2228, 2009
** ... 8738 like lines cut
*Nset, nset=Set-1, generate
*End Part
**  
**
** ASSEMBLY
**
*Assembly, name=Assembly
**  
*Instance, name=Part-1-1, part=Part-1
*End Instance
**  
*End Assembly
** 
** MATERIALS
** 
*Material, name=Material-1
*Elastic
 1.2e+07, 0.3
** ----------------------------------------------------------------
** 
** STEP: Step-1
** 
*Step, name=Step-1, nlgeom=NO
*Static
1., 1., 1e-05, 1.
** 
** OUTPUT REQUESTS
** 
*Restart, write, frequency=0
** 
** FIELD OUTPUT: F-Output-1
** 
*Output, field, variable=PRESELECT
** 
** HISTORY OUTPUT: H-Output-1
** 
*Output, history, variable=PRESELECT
*End Step
